#
# config.in 1.8 1997/04/18 14:52:27 (David Hinds)
#
LINUX=/usr/src/linux
MODPATH=/lib/modules
CC=gcc
LD=ld
PCDEBUG=
# UNSAFE_TOOLS is not set
# CONFIG_PCI is not set
# CONFIG_APM is not set
# CONFIG_SCSI is not set
CONFIG_INET=y
CONFIG_MODVERSIONS=y
SYSV_INIT=n
RC_DIR=/etc
